<routes>
    <vType accel="1.0" decel="4.5" id="standard_car" length="5.0" minGap="2.5" maxSpeed="100" sigma="0.5"/>
    <vType id="bus" accel="1.0" decel="4.5" length="12.0" minGap="3.0" maxSpeed="100" sigma="0.5"/>
    <route id="W_N" edges="W2TL TL2N"/>
    <route id="W_E" edges="W2TL TL2E"/>
    <route id="W_S" edges="W2TL TL2S"/>
    <route id="N_W" edges="N2TL TL2W"/>
    <route id="N_E" edges="N2TL TL2E"/>
    <route id="N_S" edges="N2TL TL2S"/>
    <route id="E_W" edges="E2TL TL2W"/>
    <route id="E_N" edges="E2TL TL2N"/>
    <route id="E_S" edges="E2TL TL2S"/>
    <route id="S_W" edges="S2TL TL2W"/>
    <route id="S_N" edges="S2TL TL2N"/>
    <route id="S_E" edges="S2TL TL2E"/>

    <vehicle id="0" type="bus" route="N_S" depart="0.0" departLane="random" departSpeed="60.9"/>
    <vehicle id="1" type="standard_car" route="N_S" depart="10.0" departLane="random" departSpeed="3.95"/>
    <vehicle id="2" type="standard_car" route="S_E" depart="33.0" departLane="random" departSpeed="41.43"/>
    <vehicle id="3" type="bus" route="E_W" depart="38.0" departLane="random" departSpeed="28.67"/>
    <vehicle id="4" type="bus" route="S_N" depart="47.0" departLane="random" departSpeed="45.0"/>
    <vehicle id="5" type="standard_car" route="S_N" depart="51.0" departLane="random" departSpeed="2.24"/>
    <vehicle id="6" type="bus" route="S_E" depart="57.0" departLane="random" departSpeed="19.99"/>
    <vehicle id="7" type="standard_car" route="N_W" depart="59.0" departLane="random" departSpeed="24.56"/>
    <vehicle id="8" type="bus" route="W_E" depart="60.0" departLane="random" departSpeed="11.18"/>
    <vehicle id="9" type="standard_car" route="N_E" depart="65.0" departLane="random" departSpeed="43.37"/>
    <vehicle id="10" type="bus" route="N_E" depart="72.0" departLane="random" departSpeed="55.18"/>
    <vehicle id="11" type="bus" route="W_N" depart="75.0" departLane="random" departSpeed="8.28"/>
    <vehicle id="12" type="standard_car" route="W_E" depart="81.0" departLane="random" departSpeed="40.15"/>
    <vehicle id="13" type="bus" route="W_S" depart="83.0" departLane="random" departSpeed="45.02"/>
    <vehicle id="14" type="standard_car" route="N_W" depart="110.0" departLane="random" departSpeed="43.58"/>
    <vehicle id="15" type="bus" route="E_W" depart="111.0" departLane="random" departSpeed="11.64"/>
    <vehicle id="16" type="bus" route="N_S" depart="117.0" departLane="random" departSpeed="44.98"/>
    <vehicle id="17" type="standard_car" route="W_N" depart="125.0" departLane="random" departSpeed="22.74"/>
    <vehicle id="18" type="standard_car" route="S_W" depart="129.0" departLane="random" departSpeed="44.18"/>
    <vehicle id="19" type="bus" route="E_N" depart="129.0" departLane="random" departSpeed="45.0"/>
    <vehicle id="20" type="bus" route="W_E" depart="134.0" departLane="random" departSpeed="9.92"/>
    <vehicle id="21" type="bus" route="N_S" depart="140.0" departLane="random" departSpeed="1.19"/>
    <vehicle id="22" type="bus" route="S_W" depart="142.0" departLane="random" departSpeed="29.32"/>
    <vehicle id="23" type="standard_car" route="N_W" depart="143.0" departLane="random" departSpeed="2.03"/>
    <vehicle id="24" type="bus" route="S_E" depart="143.0" departLane="random" departSpeed="38.82"/>
    <vehicle id="25" type="bus" route="S_W" depart="151.0" departLane="random" departSpeed="2.62"/>
    <vehicle id="26" type="bus" route="E_N" depart="156.0" departLane="random" departSpeed="1.24"/>
    <vehicle id="27" type="bus" route="E_S" depart="160.0" departLane="random" departSpeed="10.97"/>
    <vehicle id="28" type="bus" route="S_N" depart="160.0" departLane="random" departSpeed="45.02"/>
    <vehicle id="29" type="bus" route="E_S" depart="162.0" departLane="random" departSpeed="41.39"/>
    <vehicle id="30" type="bus" route="W_S" depart="162.0" departLane="random" departSpeed="61.57"/>
    <vehicle id="31" type="standard_car" route="E_W" depart="164.0" departLane="random" departSpeed="50.85"/>
    <vehicle id="32" type="bus" route="E_N" depart="165.0" departLane="random" departSpeed="37.6"/>
    <vehicle id="33" type="bus" route="E_W" depart="168.0" departLane="random" departSpeed="18.37"/>
    <vehicle id="34" type="bus" route="S_W" depart="169.0" departLane="random" departSpeed="60.74"/>
    <vehicle id="35" type="bus" route="N_S" depart="174.0" departLane="random" departSpeed="45.0"/>
    <vehicle id="36" type="bus" route="S_W" depart="182.0" departLane="random" departSpeed="36.6"/>
    <vehicle id="37" type="standard_car" route="N_S" depart="182.0" departLane="random" departSpeed="51.67"/>
    <vehicle id="38" type="bus" route="N_E" depart="185.0" departLane="random" departSpeed="11.5"/>
    <vehicle id="39" type="bus" route="S_W" depart="185.0" departLane="random" departSpeed="30.42"/>
    <vehicle id="40" type="bus" route="S_N" depart="185.0" departLane="random" departSpeed="55.96"/>
    <vehicle id="41" type="bus" route="E_W" depart="190.0" departLane="random" departSpeed="1.76"/>
    <vehicle id="42" type="bus" route="E_W" depart="192.0" departLane="random" departSpeed="56.22"/>
    <vehicle id="43" type="standard_car" route="S_N" depart="193.0" departLane="random" departSpeed="34.85"/>
    <vehicle id="44" type="bus" route="E_W" depart="194.0" departLane="random" departSpeed="50.71"/>
    <vehicle id="45" type="standard_car" route="W_N" depart="197.0" departLane="random" departSpeed="15.0"/>
    <vehicle id="46" type="bus" route="W_E" depart="197.0" departLane="random" departSpeed="45.3"/>
    <vehicle id="47" type="standard_car" route="W_S" depart="199.0" departLane="random" departSpeed="44.74"/>
    <vehicle id="48" type="standard_car" route="E_W" depart="200.0" departLane="random" departSpeed="8.51"/>
    <vehicle id="49" type="bus" route="N_E" depart="202.0" departLane="random" departSpeed="30.86"/>
    <vehicle id="50" type="bus" route="E_W" depart="203.0" departLane="random" departSpeed="3.54"/>
    <vehicle id="51" type="standard_car" route="N_S" depart="204.0" departLane="random" departSpeed="49.12"/>
    <vehicle id="52" type="bus" route="W_E" depart="205.0" departLane="random" departSpeed="54.91"/>
    <vehicle id="53" type="bus" route="W_E" depart="211.0" departLane="random" departSpeed="12.48"/>
    <vehicle id="54" type="bus" route="S_W" depart="211.0" departLane="random" departSpeed="9.91"/>
    <vehicle id="55" type="bus" route="N_W" depart="211.0" departLane="random" departSpeed="45.0"/>
    <vehicle id="56" type="standard_car" route="E_W" depart="212.0" departLane="random" departSpeed="50.74"/>
    <vehicle id="57" type="bus" route="E_W" depart="214.0" departLane="random" departSpeed="33.83"/>
    <vehicle id="58" type="bus" route="W_E" depart="214.0" departLane="random" departSpeed="45.04"/>
    <vehicle id="59" type="bus" route="E_W" depart="221.0" departLane="random" departSpeed="38.75"/>
    <vehicle id="60" type="bus" route="N_S" depart="225.0" departLane="random" departSpeed="29.51"/>
    <vehicle id="61" type="bus" route="W_E" depart="230.0" departLane="random" departSpeed="54.41"/>
    <vehicle id="62" type="bus" route="S_N" depart="231.0" departLane="random" departSpeed="3.87"/>
    <vehicle id="63" type="bus" route="W_E" depart="236.0" departLane="random" departSpeed="44.98"/>
    <vehicle id="64" type="bus" route="W_E" depart="236.0" departLane="random" departSpeed="30.17"/>
    <vehicle id="65" type="bus" route="E_W" depart="237.0" departLane="random" departSpeed="32.78"/>
    <vehicle id="66" type="standard_car" route="N_E" depart="237.0" departLane="random" departSpeed="39.44"/>
    <vehicle id="67" type="standard_car" route="W_N" depart="238.0" departLane="random" departSpeed="50.18"/>
    <vehicle id="68" type="bus" route="E_S" depart="239.0" departLane="random" departSpeed="14.44"/>
    <vehicle id="69" type="standard_car" route="W_S" depart="239.0" departLane="random" departSpeed="35.76"/>
    <vehicle id="70" type="bus" route="S_E" depart="240.0" departLane="random" departSpeed="3.86"/>
    <vehicle id="71" type="standard_car" route="E_W" depart="244.0" departLane="random" departSpeed="36.09"/>
    <vehicle id="72" type="bus" route="W_S" depart="246.0" departLane="random" departSpeed="30.13"/>
    <vehicle id="73" type="standard_car" route="E_W" depart="249.0" departLane="random" departSpeed="49.05"/>
    <vehicle id="74" type="bus" route="S_N" depart="250.0" departLane="random" departSpeed="28.41"/>
    <vehicle id="75" type="standard_car" route="W_N" depart="252.0" departLane="random" departSpeed="47.41"/>
    <vehicle id="76" type="bus" route="E_N" depart="253.0" departLane="random" departSpeed="31.52"/>
    <vehicle id="77" type="bus" route="W_E" depart="253.0" departLane="random" departSpeed="44.03"/>
    <vehicle id="78" type="standard_car" route="E_S" depart="255.0" departLane="random" departSpeed="5.47"/>
    <vehicle id="79" type="standard_car" route="W_E" depart="255.0" departLane="random" departSpeed="1.73"/>
    <vehicle id="80" type="bus" route="N_W" depart="256.0" departLane="random" departSpeed="25.86"/>
    <vehicle id="81" type="bus" route="W_E" depart="259.0" departLane="random" departSpeed="46.43"/>
    <vehicle id="82" type="bus" route="N_E" depart="260.0" departLane="random" departSpeed="3.72"/>
    <vehicle id="83" type="bus" route="S_W" depart="267.0" departLane="random" departSpeed="55.79"/>
    <vehicle id="84" type="standard_car" route="E_S" depart="268.0" departLane="random" departSpeed="5.88"/>
    <vehicle id="85" type="standard_car" route="S_N" depart="268.0" departLane="random" departSpeed="9.77"/>
    <vehicle id="86" type="bus" route="E_S" depart="269.0" departLane="random" departSpeed="45.01"/>
    <vehicle id="87" type="standard_car" route="N_S" depart="270.0" departLane="random" departSpeed="15.43"/>
    <vehicle id="88" type="bus" route="W_E" depart="274.0" departLane="random" departSpeed="56.41"/>
    <vehicle id="89" type="bus" route="E_W" depart="274.0" departLane="random" departSpeed="5.79"/>
    <vehicle id="90" type="bus" route="N_S" depart="276.0" departLane="random" departSpeed="13.91"/>
    <vehicle id="91" type="standard_car" route="W_E" depart="278.0" departLane="random" departSpeed="40.88"/>
    <vehicle id="92" type="standard_car" route="S_W" depart="280.0" departLane="random" departSpeed="17.18"/>
    <vehicle id="93" type="standard_car" route="N_S" depart="280.0" departLane="random" departSpeed="5.59"/>
    <vehicle id="94" type="bus" route="S_N" depart="281.0" departLane="random" departSpeed="31.71"/>
    <vehicle id="95" type="standard_car" route="E_N" depart="281.0" departLane="random" departSpeed="38.94"/>
    <vehicle id="96" type="bus" route="S_N" depart="285.0" departLane="random" departSpeed="35.73"/>
    <vehicle id="97" type="bus" route="S_W" depart="289.0" departLane="random" departSpeed="51.46"/>
    <vehicle id="98" type="standard_car" route="S_N" depart="293.0" departLane="random" departSpeed="41.2"/>
    <vehicle id="99" type="standard_car" route="S_W" depart="293.0" departLane="random" departSpeed="23.99"/>
    <vehicle id="100" type="bus" route="W_N" depart="294.0" departLane="random" departSpeed="58.5"/>
    <vehicle id="101" type="bus" route="W_N" depart="294.0" departLane="random" departSpeed="13.25"/>
    <vehicle id="102" type="standard_car" route="W_E" depart="295.0" departLane="random" departSpeed="14.59"/>
    <vehicle id="103" type="bus" route="S_N" depart="298.0" departLane="random" departSpeed="55.21"/>
    <vehicle id="104" type="bus" route="W_S" depart="300.0" departLane="random" departSpeed="48.33"/>
    <vehicle id="105" type="standard_car" route="N_S" depart="301.0" departLane="random" departSpeed="5.71"/>
    <vehicle id="106" type="bus" route="S_W" depart="303.0" departLane="random" departSpeed="4.25"/>
    <vehicle id="107" type="bus" route="S_N" depart="304.0" departLane="random" departSpeed="5.07"/>
    <vehicle id="108" type="bus" route="W_N" depart="307.0" departLane="random" departSpeed="34.71"/>
    <vehicle id="109" type="standard_car" route="N_W" depart="308.0" departLane="random" departSpeed="43.73"/>
    <vehicle id="110" type="standard_car" route="W_N" depart="308.0" departLane="random" departSpeed="34.41"/>
    <vehicle id="111" type="bus" route="N_S" depart="310.0" departLane="random" departSpeed="30.47"/>
    <vehicle id="112" type="bus" route="S_E" depart="311.0" departLane="random" departSpeed="44.93"/>
    <vehicle id="113" type="standard_car" route="N_S" depart="311.0" departLane="random" departSpeed="15.06"/>
    <vehicle id="114" type="standard_car" route="S_W" depart="313.0" departLane="random" departSpeed="48.38"/>
    <vehicle id="115" type="bus" route="E_W" depart="313.0" departLane="random" departSpeed="11.78"/>
    <vehicle id="116" type="bus" route="S_N" depart="321.0" departLane="random" departSpeed="26.65"/>
    <vehicle id="117" type="standard_car" route="W_E" depart="323.0" departLane="random" departSpeed="38.96"/>
    <vehicle id="118" type="standard_car" route="W_E" depart="323.0" departLane="random" departSpeed="48.94"/>
    <vehicle id="119" type="bus" route="N_S" depart="325.0" departLane="random" departSpeed="26.33"/>
    <vehicle id="120" type="standard_car" route="S_N" depart="325.0" departLane="random" departSpeed="23.41"/>
    <vehicle id="121" type="bus" route="S_W" depart="327.0" departLane="random" departSpeed="28.95"/>
    <vehicle id="122" type="standard_car" route="E_W" depart="328.0" departLane="random" departSpeed="43.64"/>
    <vehicle id="123" type="bus" route="S_N" depart="331.0" departLane="random" departSpeed="3.44"/>
    <vehicle id="124" type="bus" route="N_E" depart="332.0" departLane="random" departSpeed="63.93"/>
    <vehicle id="125" type="bus" route="W_E" depart="333.0" departLane="random" departSpeed="43.14"/>
    <vehicle id="126" type="bus" route="E_W" depart="333.0" departLane="random" departSpeed="53.42"/>
    <vehicle id="127" type="standard_car" route="W_E" depart="334.0" departLane="random" departSpeed="9.5"/>
    <vehicle id="128" type="bus" route="N_S" depart="334.0" departLane="random" departSpeed="7.76"/>
    <vehicle id="129" type="bus" route="N_E" depart="336.0" departLane="random" departSpeed="1.47"/>
    <vehicle id="130" type="bus" route="N_S" depart="338.0" departLane="random" departSpeed="53.84"/>
    <vehicle id="131" type="standard_car" route="W_E" depart="340.0" departLane="random" departSpeed="44.04"/>
    <vehicle id="132" type="standard_car" route="E_W" depart="344.0" departLane="random" departSpeed="39.71"/>
    <vehicle id="133" type="standard_car" route="W_N" depart="348.0" departLane="random" departSpeed="36.83"/>
    <vehicle id="134" type="bus" route="N_W" depart="349.0" departLane="random" departSpeed="44.98"/>
    <vehicle id="135" type="standard_car" route="N_E" depart="350.0" departLane="random" departSpeed="34.52"/>
    <vehicle id="136" type="bus" route="S_W" depart="351.0" departLane="random" departSpeed="11.49"/>
    <vehicle id="137" type="standard_car" route="N_W" depart="351.0" departLane="random" departSpeed="50.1"/>
    <vehicle id="138" type="bus" route="N_E" depart="351.0" departLane="random" departSpeed="55.62"/>
    <vehicle id="139" type="standard_car" route="N_E" depart="354.0" departLane="random" departSpeed="44.33"/>
    <vehicle id="140" type="bus" route="N_W" depart="354.0" departLane="random" departSpeed="50.72"/>
    <vehicle id="141" type="bus" route="S_E" depart="355.0" departLane="random" departSpeed="53.78"/>
    <vehicle id="142" type="bus" route="S_W" depart="356.0" departLane="random" departSpeed="1.29"/>
    <vehicle id="143" type="bus" route="N_S" depart="357.0" departLane="random" departSpeed="45.0"/>
    <vehicle id="144" type="bus" route="N_S" depart="360.0" departLane="random" departSpeed="54.44"/>
    <vehicle id="145" type="standard_car" route="N_S" depart="360.0" departLane="random" departSpeed="40.2"/>
    <vehicle id="146" type="bus" route="S_E" depart="360.0" departLane="random" departSpeed="2.71"/>
    <vehicle id="147" type="standard_car" route="W_E" depart="362.0" departLane="random" departSpeed="9.62"/>
    <vehicle id="148" type="bus" route="E_N" depart="362.0" departLane="random" departSpeed="6.96"/>
    <vehicle id="149" type="standard_car" route="S_W" depart="363.0" departLane="random" departSpeed="48.05"/>
    <vehicle id="150" type="standard_car" route="S_N" depart="364.0" departLane="random" departSpeed="50.69"/>
    <vehicle id="151" type="bus" route="S_W" depart="365.0" departLane="random" departSpeed="44.98"/>
    <vehicle id="152" type="bus" route="N_S" depart="365.0" departLane="random" departSpeed="2.51"/>
    <vehicle id="153" type="bus" route="E_N" depart="366.0" departLane="random" departSpeed="30.2"/>
    <vehicle id="154" type="bus" route="E_W" depart="366.0" departLane="random" departSpeed="63.66"/>
    <vehicle id="155" type="bus" route="W_S" depart="373.0" departLane="random" departSpeed="45.3"/>
    <vehicle id="156" type="bus" route="S_N" depart="377.0" departLane="random" departSpeed="56.09"/>
    <vehicle id="157" type="standard_car" route="E_W" depart="379.0" departLane="random" departSpeed="6.79"/>
    <vehicle id="158" type="bus" route="N_S" depart="380.0" departLane="random" departSpeed="1.77"/>
    <vehicle id="159" type="standard_car" route="N_E" depart="381.0" departLane="random" departSpeed="37.3"/>
    <vehicle id="160" type="bus" route="S_E" depart="381.0" departLane="random" departSpeed="30.34"/>
    <vehicle id="161" type="bus" route="W_E" depart="383.0" departLane="random" departSpeed="64.28"/>
    <vehicle id="162" type="bus" route="N_S" depart="383.0" departLane="random" departSpeed="45.0"/>
    <vehicle id="163" type="bus" route="W_S" depart="384.0" departLane="random" departSpeed="17.89"/>
    <vehicle id="164" type="bus" route="E_W" depart="384.0" departLane="random" departSpeed="41.87"/>
    <vehicle id="165" type="standard_car" route="S_N" depart="385.0" departLane="random" departSpeed="45.04"/>
    <vehicle id="166" type="bus" route="S_N" depart="385.0" departLane="random" departSpeed="63.1"/>
    <vehicle id="167" type="standard_car" route="S_E" depart="388.0" departLane="random" departSpeed="50.78"/>
    <vehicle id="168" type="standard_car" route="N_E" depart="389.0" departLane="random" departSpeed="47.48"/>
    <vehicle id="169" type="bus" route="S_N" depart="391.0" departLane="random" departSpeed="35.02"/>
    <vehicle id="170" type="standard_car" route="W_E" depart="392.0" departLane="random" departSpeed="8.11"/>
    <vehicle id="171" type="bus" route="S_W" depart="395.0" departLane="random" departSpeed="3.17"/>
    <vehicle id="172" type="standard_car" route="N_S" depart="396.0" departLane="random" departSpeed="51.43"/>
    <vehicle id="173" type="bus" route="E_S" depart="396.0" departLane="random" departSpeed="63.28"/>
    <vehicle id="174" type="bus" route="W_E" depart="396.0" departLane="random" departSpeed="36.46"/>
    <vehicle id="175" type="standard_car" route="N_S" depart="398.0" departLane="random" departSpeed="40.64"/>
    <vehicle id="176" type="standard_car" route="W_N" depart="400.0" departLane="random" departSpeed="42.39"/>
    <vehicle id="177" type="bus" route="S_E" depart="400.0" departLane="random" departSpeed="7.09"/>
    <vehicle id="178" type="standard_car" route="S_N" depart="400.0" departLane="random" departSpeed="45.09"/>
    <vehicle id="179" type="standard_car" route="W_N" depart="402.0" departLane="random" departSpeed="34.41"/>
    <vehicle id="180" type="bus" route="W_E" depart="405.0" departLane="random" departSpeed="56.67"/>
    <vehicle id="181" type="standard_car" route="S_N" depart="407.0" departLane="random" departSpeed="41.01"/>
    <vehicle id="182" type="bus" route="S_E" depart="407.0" departLane="random" departSpeed="41.21"/>
    <vehicle id="183" type="standard_car" route="W_E" depart="408.0" departLane="random" departSpeed="50.43"/>
    <vehicle id="184" type="bus" route="W_N" depart="409.0" departLane="random" departSpeed="30.41"/>
    <vehicle id="185" type="standard_car" route="E_W" depart="410.0" departLane="random" departSpeed="44.47"/>
    <vehicle id="186" type="bus" route="E_N" depart="410.0" departLane="random" departSpeed="11.88"/>
    <vehicle id="187" type="bus" route="S_E" depart="411.0" departLane="random" departSpeed="25.18"/>
    <vehicle id="188" type="standard_car" route="E_S" depart="412.0" departLane="random" departSpeed="19.72"/>
    <vehicle id="189" type="standard_car" route="N_E" depart="414.0" departLane="random" departSpeed="1.27"/>
    <vehicle id="190" type="standard_car" route="S_N" depart="417.0" departLane="random" departSpeed="42.13"/>
    <vehicle id="191" type="standard_car" route="S_W" depart="422.0" departLane="random" departSpeed="25.3"/>
    <vehicle id="192" type="bus" route="S_W" depart="426.0" departLane="random" departSpeed="11.82"/>
    <vehicle id="193" type="standard_car" route="N_W" depart="426.0" departLane="random" departSpeed="2.22"/>
    <vehicle id="194" type="standard_car" route="S_N" depart="430.0" departLane="random" departSpeed="40.21"/>
    <vehicle id="195" type="bus" route="W_S" depart="430.0" departLane="random" departSpeed="45.08"/>
    <vehicle id="196" type="standard_car" route="N_W" depart="431.0" departLane="random" departSpeed="15.0"/>
    <vehicle id="197" type="bus" route="E_S" depart="433.0" departLane="random" departSpeed="10.82"/>
    <vehicle id="198" type="bus" route="W_S" depart="434.0" departLane="random" departSpeed="31.17"/>
    <vehicle id="199" type="standard_car" route="E_N" depart="438.0" departLane="random" departSpeed="44.75"/>
    <vehicle id="200" type="standard_car" route="E_W" depart="439.0" departLane="random" departSpeed="41.26"/>
    <vehicle id="201" type="bus" route="S_N" depart="440.0" departLane="random" departSpeed="1.43"/>
    <vehicle id="202" type="standard_car" route="E_W" depart="442.0" departLane="random" departSpeed="49.39"/>
    <vehicle id="203" type="bus" route="W_E" depart="443.0" departLane="random" departSpeed="31.49"/>
    <vehicle id="204" type="standard_car" route="W_N" depart="444.0" departLane="random" departSpeed="41.62"/>
    <vehicle id="205" type="bus" route="W_E" depart="445.0" departLane="random" departSpeed="48.97"/>
    <vehicle id="206" type="standard_car" route="N_S" depart="446.0" departLane="random" departSpeed="52.22"/>
    <vehicle id="207" type="standard_car" route="S_N" depart="449.0" departLane="random" departSpeed="1.45"/>
    <vehicle id="208" type="standard_car" route="E_W" depart="451.0" departLane="random" departSpeed="38.18"/>
    <vehicle id="209" type="standard_car" route="E_W" depart="451.0" departLane="random" departSpeed="34.71"/>
    <vehicle id="210" type="bus" route="S_N" depart="451.0" departLane="random" departSpeed="1.3"/>
    <vehicle id="211" type="standard_car" route="W_E" depart="452.0" departLane="random" departSpeed="5.42"/>
    <vehicle id="212" type="bus" route="S_N" depart="452.0" departLane="random" departSpeed="32.87"/>
    <vehicle id="213" type="bus" route="S_N" depart="452.0" departLane="random" departSpeed="16.07"/>
    <vehicle id="214" type="standard_car" route="W_S" depart="452.0" departLane="random" departSpeed="41.97"/>
    <vehicle id="215" type="standard_car" route="S_N" depart="453.0" departLane="random" departSpeed="5.16"/>
    <vehicle id="216" type="standard_car" route="S_W" depart="454.0" departLane="random" departSpeed="40.74"/>
    <vehicle id="217" type="standard_car" route="N_W" depart="454.0" departLane="random" departSpeed="37.43"/>
    <vehicle id="218" type="standard_car" route="N_S" depart="454.0" departLane="random" departSpeed="45.9"/>
    <vehicle id="219" type="bus" route="S_N" depart="454.0" departLane="random" departSpeed="28.48"/>
    <vehicle id="220" type="bus" route="E_W" depart="457.0" departLane="random" departSpeed="29.46"/>
    <vehicle id="221" type="standard_car" route="W_S" depart="457.0" departLane="random" departSpeed="44.54"/>
    <vehicle id="222" type="standard_car" route="S_N" depart="457.0" departLane="random" departSpeed="43.06"/>
    <vehicle id="223" type="standard_car" route="E_N" depart="463.0" departLane="random" departSpeed="14.05"/>
    <vehicle id="224" type="bus" route="W_E" depart="463.0" departLane="random" departSpeed="44.92"/>
    <vehicle id="225" type="standard_car" route="E_S" depart="464.0" departLane="random" departSpeed="35.75"/>
    <vehicle id="226" type="bus" route="W_S" depart="464.0" departLane="random" departSpeed="44.93"/>
    <vehicle id="227" type="standard_car" route="S_E" depart="464.0" departLane="random" departSpeed="14.11"/>
    <vehicle id="228" type="standard_car" route="W_S" depart="465.0" departLane="random" departSpeed="7.57"/>
    <vehicle id="229" type="bus" route="E_S" depart="469.0" departLane="random" departSpeed="13.55"/>
    <vehicle id="230" type="bus" route="W_E" depart="469.0" departLane="random" departSpeed="34.27"/>
    <vehicle id="231" type="standard_car" route="N_E" depart="469.0" departLane="random" departSpeed="15.0"/>
    <vehicle id="232" type="bus" route="E_W" depart="470.0" departLane="random" departSpeed="28.5"/>
    <vehicle id="233" type="bus" route="E_S" depart="472.0" departLane="random" departSpeed="44.96"/>
    <vehicle id="234" type="bus" route="S_N" depart="472.0" departLane="random" departSpeed="45.0"/>
    <vehicle id="235" type="standard_car" route="S_N" depart="473.0" departLane="random" departSpeed="37.05"/>
    <vehicle id="236" type="standard_car" route="W_E" depart="474.0" departLane="random" departSpeed="15.0"/>
    <vehicle id="237" type="standard_car" route="W_S" depart="475.0" departLane="random" departSpeed="15.0"/>
    <vehicle id="238" type="bus" route="N_S" depart="476.0" departLane="random" departSpeed="5.22"/>
    <vehicle id="239" type="standard_car" route="S_E" depart="477.0" departLane="random" departSpeed="20.76"/>
    <vehicle id="240" type="bus" route="W_E" depart="477.0" departLane="random" departSpeed="44.94"/>
    <vehicle id="241" type="bus" route="S_N" depart="478.0" departLane="random" departSpeed="56.6"/>
    <vehicle id="242" type="standard_car" route="E_N" depart="479.0" departLane="random" departSpeed="4.74"/>
    <vehicle id="243" type="standard_car" route="N_E" depart="480.0" departLane="random" departSpeed="44.44"/>
    <vehicle id="244" type="standard_car" route="E_S" depart="480.0" departLane="random" departSpeed="33.37"/>
    <vehicle id="245" type="standard_car" route="N_S" depart="480.0" departLane="random" departSpeed="1.62"/>
    <vehicle id="246" type="standard_car" route="E_N" depart="481.0" departLane="random" departSpeed="50.76"/>
    <vehicle id="247" type="bus" route="N_S" depart="482.0" departLane="random" departSpeed="1.37"/>
    <vehicle id="248" type="bus" route="S_N" depart="483.0" departLane="random" departSpeed="26.71"/>
    <vehicle id="249" type="bus" route="S_W" depart="483.0" departLane="random" departSpeed="35.03"/>
    <vehicle id="250" type="standard_car" route="E_W" depart="484.0" departLane="random" departSpeed="36.24"/>
    <vehicle id="251" type="bus" route="E_S" depart="485.0" departLane="random" departSpeed="56.35"/>
    <vehicle id="252" type="bus" route="W_S" depart="487.0" departLane="random" departSpeed="48.57"/>
    <vehicle id="253" type="standard_car" route="E_W" depart="489.0" departLane="random" departSpeed="42.5"/>
    <vehicle id="254" type="bus" route="N_W" depart="490.0" departLane="random" departSpeed="18.16"/>
    <vehicle id="255" type="bus" route="S_E" depart="491.0" departLane="random" departSpeed="5.49"/>
    <vehicle id="256" type="standard_car" route="S_N" depart="492.0" departLane="random" departSpeed="47.42"/>
    <vehicle id="257" type="standard_car" route="W_E" depart="493.0" departLane="random" departSpeed="47.51"/>
    <vehicle id="258" type="standard_car" route="W_S" depart="494.0" departLane="random" departSpeed="5.51"/>
    <vehicle id="259" type="standard_car" route="S_E" depart="497.0" departLane="random" departSpeed="36.76"/>
    <vehicle id="260" type="bus" route="S_N" depart="497.0" departLane="random" departSpeed="30.73"/>
    <vehicle id="261" type="bus" route="N_W" depart="498.0" departLane="random" departSpeed="17.74"/>
    <vehicle id="262" type="standard_car" route="E_W" depart="500.0" departLane="random" departSpeed="16.29"/>
    <vehicle id="263" type="bus" route="E_S" depart="501.0" departLane="random" departSpeed="3.89"/>
    <vehicle id="264" type="bus" route="S_W" depart="502.0" departLane="random" departSpeed="40.96"/>
    <vehicle id="265" type="standard_car" route="S_N" depart="502.0" departLane="random" departSpeed="1.15"/>
    <vehicle id="266" type="bus" route="W_E" depart="502.0" departLane="random" departSpeed="36.64"/>
    <vehicle id="267" type="bus" route="E_N" depart="504.0" departLane="random" departSpeed="19.24"/>
    <vehicle id="268" type="bus" route="S_W" depart="504.0" departLane="random" departSpeed="11.27"/>
    <vehicle id="269" type="standard_car" route="E_W" depart="505.0" departLane="random" departSpeed="50.87"/>
    <vehicle id="270" type="bus" route="E_W" depart="506.0" departLane="random" departSpeed="2.69"/>
    <vehicle id="271" type="standard_car" route="W_N" depart="507.0" departLane="random" departSpeed="42.83"/>
    <vehicle id="272" type="standard_car" route="S_N" depart="508.0" departLane="random" departSpeed="44.35"/>
    <vehicle id="273" type="bus" route="N_S" depart="508.0" departLane="random" departSpeed="59.11"/>
    <vehicle id="274" type="standard_car" route="E_S" depart="509.0" departLane="random" departSpeed="44.83"/>
    <vehicle id="275" type="standard_car" route="S_N" depart="510.0" departLane="random" departSpeed="38.18"/>
    <vehicle id="276" type="bus" route="S_W" depart="513.0" departLane="random" departSpeed="32.6"/>
    <vehicle id="277" type="standard_car" route="E_W" depart="514.0" departLane="random" departSpeed="4.66"/>